Info: SIMULATION PARAMETERS:
Info: TIMESTEP               2
Info: NUMBER OF STEPS        0
Info: STEPS PER CYCLE        10
Info: PERIODIC CELL BASIS 1  23 0 0
Info: PERIODIC CELL BASIS 2  0 19.919 0
Info: PERIODIC CELL BASIS 3  0 0 100
Info: PERIODIC CELL CENTER   0 0 0
Info: WRAPPING WATERS AROUND PERIODIC BOUNDARIES ON OUTPUT.
Info: WRAPPING ALL CLUSTERS AROUND PERIODIC BOUNDARIES ON OUTPUT.
Info: FIRST LDB TIMESTEP     50
Info: LAST LDB TIMESTEP     -1
Info: HOM BACKGROUND SCALING 1
Info: PME BACKGROUND SCALING 1
Info: MIN ATOMS PER PATCH    40
Info: INITIAL TEMPERATURE    300
Info: CENTER OF MASS MOVING INITIALLY? NO
Info: DIELECTRIC             1
Info: EXCLUDE                SCALED ONE-FOUR
Info: 1-4 ELECTROSTATICS SCALED BY 1
Info: MODIFIED 1-4 VDW PARAMETERS WILL BE USED
Info: DCD FILENAME           MDequil.dcd
Info: DCD FREQUENCY          5000
Info: DCD FIRST STEP         5000
Info: DCD FILE WILL CONTAIN UNIT CELL DATA
Info: XST FILENAME           MDequil.xst
Info: XST FREQUENCY          5000
Info: NO VELOCITY DCD OUTPUT
Info: NO FORCE DCD OUTPUT
Info: OUTPUT FILENAME        MDequil
Info: BINARY OUTPUT FILES WILL BE USED
Info: RESTART FILENAME       MDequil.restart
Info: RESTART FREQUENCY      50000
Info: BINARY RESTART FILES WILL BE USED
Info: SWITCHING ACTIVE
Info: SWITCHING ON           10
Info: SWITCHING OFF          12
Info: PAIRLIST DISTANCE      14
Info: PAIRLIST SHRINK RATE   0.01
Info: PAIRLIST GROW RATE     0.01
Info: PAIRLIST TRIGGER       0.3
Info: PAIRLISTS PER CYCLE    2
Info: PAIRLISTS ENABLED
Info: MARGIN                 0
Info: HYDROGEN GROUP CUTOFF  2.5
Info: PATCH DIMENSION        16.5
Info: ENERGY OUTPUT STEPS    5000
Info: CROSSTERM ENERGY INCLUDED IN DIHEDRAL
Info: TIMING OUTPUT STEPS    50000
Info: PRESSURE OUTPUT STEPS  5000
Info: FIXED ATOMS ACTIVE
Info: LANGEVIN DYNAMICS ACTIVE
Info: LANGEVIN TEMPERATURE   300
Info: LANGEVIN USING BBK INTEGRATOR
Info: LANGEVIN DAMPING COEFFICIENT IS 1 INVERSE PS
Info: LANGEVIN DYNAMICS NOT APPLIED TO HYDROGENS
Info: PARTICLE MESH EWALD (PME) ACTIVE
Info: PME TOLERANCE               1e-06
Info: PME EWALD COEFFICIENT       0.257952
Info: PME INTERPOLATION ORDER     4
Info: PME GRID DIMENSIONS         24 20 108
Info: PME MAXIMUM GRID SPACING    1
Info: FULL ELECTROSTATIC EVALUATION FREQUENCY      2
Info: USING VERLET I (r-RESPA) MTS SCHEME.
Info: C1 SPLITTING OF LONG RANGE ELECTROSTATICS
Info: PLACING ATOMS IN PATCHES BY HYDROGEN GROUPS
Info: RIGID BONDS TO HYDROGEN : ALL
Info:         ERROR TOLERANCE : 1e-08
Info:          MAX ITERATIONS : 100
Info: RIGID WATER USING SETTLE ALGORITHM
Info: RANDOM NUMBER SEED     1715248104
Info: USE HYDROGEN BONDS?    NO
Info: COORDINATE PDB         ../input/system.pdb
Info: STRUCTURE FILE         ../input/system.psf
Info: PARAMETER file: CHARMM format!
Info: PARAMETERS             ../input/par_nanotubes.inp
Info: PARAMETERS             ../input/par_water_ions.inp
Info: USING ARITHMETIC MEAN TO COMBINE L-J SIGMA PARAMETERS
Info: SUMMARY OF PARAMETERS:
Info: 4 BONDS
Info: 2 ANGLES
Info: 1 DIHEDRAL
Info: 0 IMPROPER
Info: 0 CROSSTERM
Info: 16 VDW
Info: 2 VDW_PAIRS
Info: 0 NBTHOLE_PAIRS
Info: STRUCTURE SUMMARY:
Info: 2160 ATOMS
Info: 1872 BONDS
Info: 2064 ANGLES
Info: 2928 DIHEDRALS
Info: 0 IMPROPERS
Info: 0 CROSSTERMS
Info: 0 EXCLUSIONS
Info: 576 FIXED ATOMS
Info: 1584 RIGID BONDS
Info: 0 RIGID BONDS BETWEEN FIXED ATOMS
Info: 3168 DEGREES OF FREEDOM
Info: 1104 HYDROGEN GROUPS
Info: 3 ATOMS IN LARGEST HYDROGEN GROUP
Info: 1104 MIGRATION GROUPS
Info: 3 ATOMS IN LARGEST MIGRATION GROUP
Info: 576 HYDROGEN GROUPS WITH ALL ATOMS FIXED
Info: TOTAL MASS = 16430.5 amu
Info: TOTAL CHARGE = 0 e
Info: MASS DENSITY = 0.595544 g/cm^3
Info: ATOM DENSITY = 0.0471475 atoms/A^3
Info: ADDED 6144 IMPLICIT EXCLUSIONS
Info: NONBONDED TABLE R-SQUARED SPACING: 0.0625
Info: NONBONDED TABLE SIZE: 769 POINTS
Info: REMOVING COM VELOCITY 0.19126 0.0255909 0.144481
TCL: Minimizing for 5000 steps
ETITLE: TS BOND ANGLE DIHED IMPRP ELECT VDW BOUNDARY MISC KINETIC TOTAL TEMP POTENTIAL TOTAL3 TEMPAVG PRESSURE GPRESSURE VOLUME PRESSAVG GPRESSAVG
ENERGY: 0 0.0000 0.0000 0.0000 0.0000 -4614.0837 1998039.8145 0.0000 0.0000 0.0000 1993425.7309 0.0000 1993425.7309 1993425.7309 0.0000 13252170.3969 19309347.4862 45813.7000 13252170.3969 19309347.4862
ENERGY: 1000 0.0000 0.0000 0.0000 0.0000 -7208.1051 905.5025 0.0000 0.0000 0.0000 -6302.6025 0.0000 -6302.6025 -6302.6025 0.0000 8574.8022 8544.4986 45813.7000 8574.8022 8544.4986
ENERGY: 2000 0.0000 0.0000 0.0000 0.0000 -7259.9845 918.0768 0.0000 0.0000 0.0000 -6341.9077 0.0000 -6341.9077 -6341.9077 0.0000 8717.7052 8686.2232 45813.7000 8717.7052 8686.2232
ENERGY: 3000 0.0000 0.0000 0.0000 0.0000 -7295.7259 935.8429 0.0000 0.0000 0.0000 -6359.8830 0.0000 -6359.8830 -6359.8830 0.0000 8896.8491 8871.4505 45813.7000 8896.8491 8871.4505
ENERGY: 4000 0.0000 0.0000 0.0000 0.0000 -7308.3102 934.7412 0.0000 0.0000 0.0000 -6373.5691 0.0000 -6373.5691 -6373.5691 0.0000 8929.2083 8886.5807 45813.7000 8929.2083 8886.5807
ENERGY: 5000 0.0000 0.0000 0.0000 0.0000 -7329.1236 946.7270 0.0000 0.0000 0.0000 -6382.3966 0.0000 -6382.3966 -6382.3966 0.0000 9058.8856 9021.8781 45813.7000 9058.8856 9021.8781
TCL: Running for 50000 steps
ETITLE: TS BOND ANGLE DIHED IMPRP ELECT VDW BOUNDARY MISC KINETIC TOTAL TEMP POTENTIAL TOTAL3 TEMPAVG PRESSURE GPRESSURE VOLUME PRESSAVG GPRESSAVG
ENERGY: 5000 0.0000 0.0000 0.0000 0.0000 -7329.1236 946.7270 0.0000 0.0000 0.0000 -6382.3966 0.0000 -6382.3966 -6382.4142 0.0000 -664.6588 -656.1117 45813.7000 -664.6588 -656.1117
ENERGY: 15000 0.0000 0.0000 0.0000 0.0000 -5662.9165 551.7411 0.0000 0.0000 914.9619 -4196.2135 290.6754 -5111.1754 -4193.6817 290.9144 31.6359 38.9895 45813.7000 -117.7858 -117.8312
ENERGY: 25000 0.0000 0.0000 0.0000 0.0000 -5580.0219 467.1555 0.0000 0.0000 953.1673 -4159.6991 302.8129 -5112.8664 -4157.4905 294.4668 -323.6716 -313.4180 45813.7000 -53.9858 -53.9844
ENERGY: 35000 0.0000 0.0000 0.0000 0.0000 -5622.4482 458.5923 0.0000 0.0000 949.0628 -4214.7931 301.5089 -5163.8559 -4211.5070 294.4942 -361.3487 -352.5909 45813.7000 -76.3892 -76.4299
ENERGY: 45000 0.0000 0.0000 0.0000 0.0000 -5608.4124 487.6149 0.0000 0.0000 999.0995 -4121.6981 317.4051 -5120.7976 -4119.5052 305.7157 -125.7588 -110.5470 45813.7000 -18.7283 -18.7132
ENERGY: 55000 0.0000 0.0000 0.0000 0.0000 -5533.7849 461.3620 0.0000 0.0000 906.1690 -4166.2539 287.8819 -5072.4229 -4163.4039 298.4426 -137.4558 -132.2705 45813.7000 -67.3580 -67.4814
